Circuit: *** SPICE deck for cell DUT_AND2_1x{sch} from library Assign1

Direct Newton iteration for .op point succeeded.

Date: Tue Sep 21 14:54:24 2021
Total elapsed time: 0.959 seconds.

tnom = 27
temp = 27
method = modified trap
totiter = 2370
traniter = 2360
tranpoints = 1115
accept = 1094
rejected = 21
matrix size = 33
fillins = 0
solver = Normal
Matrix Compiler1: 3.46 KB object code size  0.8/0.4/[0.2]
Matrix Compiler2: 3.75 KB object code size  0.4/0.5/[0.3]

