Circuit: *** SPICE deck for cell NAND2_LAYOUT{lay} from library EXPT1_2x

Direct Newton iteration for .op point succeeded.

nand2_rise_delay_idle_b=1.21877e-011 FROM 9.5e-010 TO 9.62188e-010
nand2_fall_delay_idle_b=1.5767e-011 FROM 1.35e-009 TO 1.36577e-009
nand2_trise_idle_b=3.06338e-011 FROM 9.44611e-010 TO 9.75244e-010
nand2_tfall_idle_b=2.01e-011 FROM 1.35471e-009 TO 1.37481e-009


Date: Tue Sep 21 21:03:27 2021
Total elapsed time: 0.115 seconds.

tnom = 27
temp = 27
method = modified trap
totiter = 2165
traniter = 2157
tranpoints = 1057
accept = 1057
rejected = 0
matrix size = 24
fillins = 0
solver = Normal
Matrix Compiler1: 2.23 KB object code size  1.0/0.6/[0.3]
Matrix Compiler2: 2.68 KB object code size  0.6/0.7/[0.5]

